# File generated by Flopy version 3.5.0 on 01/16/2024 at 00:12:31.
BEGIN options
  TS6  FILEIN  gwf_fhb.wel.ts
END options

BEGIN dimensions
  MAXBOUND  1
END dimensions

BEGIN period  1
  1 2 1 flowrate
END period  1

