# File generated by Flopy version 3.5.0 on 01/16/2024 at 00:12:31.
BEGIN griddata
  strt
    CONSTANT       0.00000000
END griddata

