# File generated by Flopy version 3.5.0 on 01/17/2024 at 14:11:10.
BEGIN options
END options

BEGIN continuous  FILEOUT  gwf_fhb.obs.flow.csv
  icf1  flow-ja-face  1 2 2  1 2 1
END continuous  FILEOUT  gwf_fhb.obs.flow.csv

BEGIN continuous  FILEOUT  gwf_fhb.obs.head.csv
  h1_2_1  head  1 2 1
  h1_2_10  head  1 2 10
END continuous  FILEOUT  gwf_fhb.obs.head.csv

