# File generated by Flopy version 3.5.0 on 01/17/2024 at 14:11:10.
BEGIN options
  TS6  FILEIN  gwf_fhb.wel.ts
END options

BEGIN dimensions
  MAXBOUND  1
END dimensions

BEGIN period  1
  1 2 1 flowrate
END period  1

