# File generated by Flopy version 3.5.0 on 01/14/2024 at 19:41:17.
BEGIN options
  BUDGET  FILEOUT  gwf_advtidal.cbc
  HEAD  FILEOUT  gwf_advtidal.hds
END options

BEGIN period  1
  SAVE  head  all
  SAVE  budget  all
END period  1

