# File generated by Flopy version 3.5.0 on 01/17/2024 at 10:48:17.
BEGIN griddata
  strt
    CONSTANT      50.00000000
END griddata

