# File generated by Flopy version 3.5.0 on 01/17/2024 at 10:48:17.
BEGIN options
  BUDGET  FILEOUT  gwf_advtidal.cbc
  HEAD  FILEOUT  gwf_advtidal.hds
END options

BEGIN period  1
  SAVE  head  all
  SAVE  budget  all
END period  1

