# File generated by Flopy version 3.5.0 on 01/17/2024 at 10:48:17.
BEGIN options
END options

BEGIN griddata
  iconvert
    CONSTANT  1
  ss
    CONSTANT  1.00000000E-06
  sy
    CONSTANT       0.20000000
END griddata

BEGIN period  1
  STEADY-STATE
  TRANSIENT
END period  1

