# File generated by Flopy version 3.5.0 on 01/14/2024 at 19:41:17.
BEGIN options
END options

BEGIN timing
  TDIS6  gwf_advtidal.tdis
END timing

BEGIN models
  gwf6  gwf_advtidal.nam  gwf_advtidal
END models

BEGIN exchanges
END exchanges

BEGIN solutiongroup  1
  ims6  gwf_advtidal.ims  gwf_advtidal
END solutiongroup  1

