# File generated by Flopy version 3.5.0 on 01/11/2024 at 20:18:42.
BEGIN options
END options

BEGIN dimensions
  MAXBOUND  15
END dimensions

BEGIN period  1
  1 9 8 -5.00000000E+00
  1 9 10 -5.00000000E+00
  1 9 12 -5.00000000E+00
  1 9 14 -5.00000000E+00
  1 11 8 -5.00000000E+00
  1 11 10 -5.00000000E+00
  1 11 12 -5.00000000E+00
  1 11 14 -5.00000000E+00
  1 13 8 -5.00000000E+00
  1 13 10 -5.00000000E+00
  1 13 12 -5.00000000E+00
  1 13 14 -5.00000000E+00
  3 4 6 -5.00000000E+00
  3 6 12 -5.00000000E+00
  5 5 11 -5.00000000E+00
END period  1

