# File generated by Flopy version 3.5.0 on 01/11/2024 at 20:18:42.
BEGIN options
  TIME_UNITS  seconds
END options

BEGIN dimensions
  NPER  1
END dimensions

BEGIN perioddata
   86400.00000000  1       1.00000000
END perioddata

