# File generated by Flopy version 3.5.0 on 01/15/2024 at 13:46:31.
BEGIN options
END options

BEGIN dimensions
  MAXBOUND  30
END dimensions

BEGIN period  1
  1 1 1 0.00000000E+00
  1 2 1 0.00000000E+00
  1 3 1 0.00000000E+00
  1 4 1 0.00000000E+00
  1 5 1 0.00000000E+00
  1 6 1 0.00000000E+00
  1 7 1 0.00000000E+00
  1 8 1 0.00000000E+00
  1 9 1 0.00000000E+00
  1 10 1 0.00000000E+00
  1 11 1 0.00000000E+00
  1 12 1 0.00000000E+00
  1 13 1 0.00000000E+00
  1 14 1 0.00000000E+00
  1 15 1 0.00000000E+00
  3 1 1 0.00000000E+00
  3 2 1 0.00000000E+00
  3 3 1 0.00000000E+00
  3 4 1 0.00000000E+00
  3 5 1 0.00000000E+00
  3 6 1 0.00000000E+00
  3 7 1 0.00000000E+00
  3 8 1 0.00000000E+00
  3 9 1 0.00000000E+00
  3 10 1 0.00000000E+00
  3 11 1 0.00000000E+00
  3 12 1 0.00000000E+00
  3 13 1 0.00000000E+00
  3 14 1 0.00000000E+00
  3 15 1 0.00000000E+00
END period  1

