# File generated by Flopy version 3.5.0 on 01/11/2024 at 20:18:42.
BEGIN griddata
  strt
    CONSTANT       0.00000000
END griddata

