# File generated by Flopy version 3.5.0 on 01/17/2024 at 14:10:48.
BEGIN options
  BUDGET  FILEOUT  gwf_twri01.cbc
  HEAD  FILEOUT  gwf_twri01.hds
END options

BEGIN period  1
  SAVE  head  all
  SAVE  budget  all
END period  1

