# File generated by Flopy version 3.5.0 on 01/15/2024 at 13:29:05.
BEGIN options
  BOUNDNAMES
  TS6  FILEIN  gwf_tidal.ghb.ts
  OBS6  FILEIN  gwf_tidal.ghb.obs
END options

BEGIN dimensions
  MAXBOUND  30
END dimensions

BEGIN period  1
  2 1 10 tides 1.50000000E+01 estuary-l2
  2 2 10 tides 1.50000000E+01 estuary-l2
  2 3 10 tides 1.50000000E+01 estuary-l2
  2 4 10 tides 1.50000000E+01 estuary-l2
  2 5 10 tides 1.50000000E+01 estuary-l2
  2 6 10 tides 1.50000000E+01 estuary-l2
  2 7 10 tides 1.50000000E+01 estuary-l2
  2 8 10 tides 1.50000000E+01 estuary-l2
  2 9 10 tides 1.50000000E+01 estuary-l2
  2 10 10 tides 1.50000000E+01 estuary-l2
  2 11 10 tides 1.50000000E+01 estuary-l2
  2 12 10 tides 1.50000000E+01 estuary-l2
  2 13 10 tides 1.50000000E+01 estuary-l2
  2 14 10 tides 1.50000000E+01 estuary-l2
  2 15 10 tides 1.50000000E+01 estuary-l2
  3 1 10 tides 1.50000000E+03 estuary-l3
  3 2 10 tides 1.50000000E+03 estuary-l3
  3 3 10 tides 1.50000000E+03 estuary-l3
  3 4 10 tides 1.50000000E+03 estuary-l3
  3 5 10 tides 1.50000000E+03 estuary-l3
  3 6 10 tides 1.50000000E+03 estuary-l3
  3 7 10 tides 1.50000000E+03 estuary-l3
  3 8 10 tides 1.50000000E+03 estuary-l3
  3 9 10 tides 1.50000000E+03 estuary-l3
  3 10 10 tides 1.50000000E+03 estuary-l3
  3 11 10 tides 1.50000000E+03 estuary-l3
  3 12 10 tides 1.50000000E+03 estuary-l3
  3 13 10 tides 1.50000000E+03 estuary-l3
  3 14 10 tides 1.50000000E+03 estuary-l3
  3 15 10 tides 1.50000000E+03 estuary-l3
END period  1

