# File generated by Flopy version 3.5.0 on 01/14/2024 at 22:29:54.
BEGIN griddata
  strt
    CONSTANT      50.00000000
END griddata

