# File generated by Flopy version 3.5.0 on 01/14/2024 at 22:29:54.
BEGIN options
  SAVE_FLOWS
END options

BEGIN packages
  DIS6  gwf_tidal.dis  dis
  NPF6  gwf_tidal.npf  npf
  IC6  gwf_tidal.ic  ic
  STO6  gwf_tidal.sto  sto
  GHB6  gwf_tidal.ghb  ghb
  WEL6  gwf_tidal.wel  wel
  RIV6  gwf_tidal.riv  riv
  RCH6  gwf_tidal.rch1  rch-zone_1
  RCH6  gwf_tidal.rch2  rch-zone_2
  RCH6  gwf_tidal.rch3  rch-zone_3
  EVT6  gwf_tidal.evt  evt
  OC6  gwf_tidal.oc  oc
  OBS6  gwf_tidal.obs  obs
END packages

