# File generated by Flopy version 3.5.0 on 01/14/2024 at 22:29:54.
BEGIN options
  BUDGET  FILEOUT  gwf_tidal.cbc
  HEAD  FILEOUT  gwf_tidal.hds
END options

BEGIN period  1
  SAVE  head  all
  SAVE  budget  all
END period  1

