# File generated by Flopy version 3.5.0 on 01/17/2024 at 14:12:04.
BEGIN options
  BUDGET  FILEOUT  gwf_tidal.cbc
  HEAD  FILEOUT  gwf_tidal.hds
END options

BEGIN period  1
  SAVE  head  all
  SAVE  budget  all
END period  1

