# File generated by Flopy version 3.5.0 on 01/14/2024 at 22:29:54.
BEGIN options
  BOUNDNAMES
  TS6  FILEIN  gwf_tidal.riv.ts
END options

BEGIN dimensions
  MAXBOUND  20
END dimensions

BEGIN period  1
  1 3 1 river_stage_1 1.00100000E+03 3.59000000E+01 
  1 4 2 river_stage_1 1.00200000E+03 3.58000000E+01 
  1 5 3 river_stage_1 1.00300000E+03 3.57000000E+01 
  1 5 4 river_stage_1 1.00400000E+03 3.56000000E+01 
  1 6 5 river_stage_1 1.00500000E+03 3.55000000E+01 
  1 6 6 river_stage_1 1.00600000E+03 3.54000000E+01 riv1_c6
  1 6 7 river_stage_1 1.00700000E+03 3.53000000E+01 riv1_c7
  1 5 8 river_stage_1 1.00800000E+03 3.52000000E+01 
  1 5 9 river_stage_1 1.00900000E+03 3.51000000E+01 
  1 5 10 river_stage_1 1.01000000E+03 3.50000000E+01 
  1 10 1 river_stage_2 1.00100000E+03 3.69000000E+01 riv2_upper
  1 9 2 river_stage_2 1.00200000E+03 3.68000000E+01 riv2_upper
  1 8 3 river_stage_2 1.00300000E+03 3.67000000E+01 riv2_upper
  1 7 4 river_stage_2 1.00400000E+03 3.66000000E+01 
  1 7 5 river_stage_2 1.00500000E+03 3.65000000E+01 
  1 6 6 river_stage_2 1.00600000E+03 3.64000000E+01 riv2_c6
  1 6 7 river_stage_2 1.00700000E+03 3.63000000E+01 riv2_c7
  1 7 8 river_stage_2 1.00800000E+03 3.62000000E+01 
  1 7 9 river_stage_2 1.00900000E+03 3.61000000E+01 
  1 7 10 river_stage_2 1.01000000E+03 3.60000000E+01 
END period  1

