# File generated by Flopy version 3.5.0 on 01/15/2024 at 13:29:05.
BEGIN griddata
  strt
    CONSTANT      50.00000000
END griddata

