# File generated by Flopy version 3.5.0 on 01/14/2024 at 22:29:54.
BEGIN options
  BOUNDNAMES
  TS6  FILEIN  gwf_tidal.wel.ts
END options

BEGIN dimensions
  MAXBOUND  5
END dimensions

BEGIN period  2
  1 12 3 -50.0 
  3 4 3 well_2_rate well_2
  3 5 8 well_1_rate well_1
END period  2

BEGIN period  3
  1 3 5 -20.0 
  1 12 3 -10.0 
  1 14 6 -40.0 
  3 4 3 well_2_rate well_2
  3 5 8 well_1_rate well_1
END period  3

BEGIN period  4
  1 3 5 -20.0 
  1 12 3 -10.0 
  1 14 6 -40.0 
  3 4 3 well_2_rate well_2
  3 5 8 well_1_rate well_1
END period  4

