# File generated by Flopy version 3.5.0 on 01/17/2024 at 14:12:04.
BEGIN griddata
  strt
    CONSTANT      50.00000000
END griddata

