# File generated by Flopy version 3.5.0 on 01/17/2024 at 14:12:04.
BEGIN options
END options

BEGIN continuous  FILEOUT  gwf_tidal.ghb.obs.csv
  ghb_2_6_10  ghb  2 6 10
  ghb_3_6_10  ghb  3 6 10
  estuary2  ghb  estuary-l2
  estuary3  ghb  estuary-l3
END continuous  FILEOUT  gwf_tidal.ghb.obs.csv

