# File generated by Flopy version 3.5.0 on 01/14/2024 at 22:29:54.
BEGIN options
END options

BEGIN continuous  FILEOUT  gwf_tidal.obs.flow.csv
  icf1  flow-ja-face  1 5 6  1 6 6
END continuous  FILEOUT  gwf_tidal.obs.flow.csv

BEGIN continuous  FILEOUT  gwf_tidal.obs.head.csv
  h3_13_8  head  3 13 8
END continuous  FILEOUT  gwf_tidal.obs.head.csv

