# File generated by Flopy version 3.5.0 on 01/15/2024 at 13:29:05.
BEGIN options
END options

BEGIN timing
  TDIS6  gwf_tidal.tdis
END timing

BEGIN models
  gwf6  gwf_tidal.nam  gwf_tidal
END models

BEGIN exchanges
END exchanges

BEGIN solutiongroup  1
  ims6  gwf_tidal.ims  gwf_tidal
END solutiongroup  1

