# File generated by Flopy version 3.5.0 on 01/14/2024 at 22:29:54.
BEGIN options
END options

BEGIN timing
  TDIS6  gwf_tidal.tdis
END timing

BEGIN models
  gwf6  gwf_tidal.nam  gwf_tidal
END models

BEGIN exchanges
END exchanges

BEGIN solutiongroup  1
  ims6  gwf_tidal.ims  gwf_tidal
END solutiongroup  1

