# File generated by Flopy version 3.5.0 on 01/17/2024 at 14:11:40.
BEGIN options
  SAVE_FLOWS
  NEWTON
END options

BEGIN packages
  DIS6  gwf_bcf2ss.dis  dis
  NPF6  gwf_bcf2ss.npf  npf
  IC6  gwf_bcf2ss.ic  ic
  RIV6  gwf_bcf2ss.riv  riv_0
  WEL6  gwf_bcf2ss.wel  wel_0
  RCH6  gwf_bcf2ss.rcha  rcha_0
  OC6  gwf_bcf2ss.oc  oc
END packages

