# File generated by Flopy version 3.5.0 on 01/15/2024 at 14:09:32.
BEGIN options
  READASARRAYS
END options

BEGIN period  1
  recharge
    CONSTANT       0.00400000
END period  1

