# File generated by Flopy version 3.5.0 on 01/17/2024 at 14:11:40.
BEGIN options
END options

BEGIN timing
  TDIS6  gwf_bcf2ss.tdis
END timing

BEGIN models
  gwf6  gwf_bcf2ss.nam  gwf_bcf2ss
END models

BEGIN exchanges
END exchanges

BEGIN solutiongroup  1
  ims6  gwf_bcf2ss.ims  gwf_bcf2ss
END solutiongroup  1

