# File generated by Flopy version 3.5.0 on 01/15/2024 at 14:09:31.
BEGIN options
END options

BEGIN dimensions
  MAXBOUND  10
END dimensions

BEGIN period  1
  2 1 15 0.00000000E+00 1.00000000E+04 -5.00000000E+00
  2 2 15 0.00000000E+00 1.00000000E+04 -5.00000000E+00
  2 3 15 0.00000000E+00 1.00000000E+04 -5.00000000E+00
  2 4 15 0.00000000E+00 1.00000000E+04 -5.00000000E+00
  2 5 15 0.00000000E+00 1.00000000E+04 -5.00000000E+00
  2 6 15 0.00000000E+00 1.00000000E+04 -5.00000000E+00
  2 7 15 0.00000000E+00 1.00000000E+04 -5.00000000E+00
  2 8 15 0.00000000E+00 1.00000000E+04 -5.00000000E+00
  2 9 15 0.00000000E+00 1.00000000E+04 -5.00000000E+00
  2 10 15 0.00000000E+00 1.00000000E+04 -5.00000000E+00
END period  1

