# File generated by Flopy version 3.5.0 on 01/15/2024 at 14:09:31.
BEGIN options
  BUDGET  FILEOUT  gwf_bcf2ss.cbc
  HEAD  FILEOUT  gwf_bcf2ss.hds
END options

BEGIN period  1
  SAVE  head  all
  SAVE  budget  all
END period  1

