# File generated by Flopy version 3.5.0 on 01/17/2024 at 14:11:38.
BEGIN options
END options

BEGIN dimensions
  MAXBOUND  2
END dimensions

BEGIN period  2
  2 3 4 -3.50000000E+04
  2 8 4 -3.50000000E+04
END period  2

