# File generated by Flopy version 3.5.0 on 01/17/2024 at 14:11:38.
BEGIN griddata
  strt
    CONSTANT       0.00000000
END griddata

