# File generated by Flopy version 3.5.0 on 01/15/2024 at 14:09:31.
BEGIN griddata
  strt
    CONSTANT       0.00000000
END griddata

