# File generated by Flopy version 3.5.0 on 01/13/2024 at 16:12:15.
BEGIN griddata
  strt
    CONSTANT       0.00000000
END griddata

