# File generated by Flopy version 3.5.0 on 01/13/2024 at 16:12:16.
BEGIN options
  READASARRAYS
END options

BEGIN period  1
  recharge
    CONSTANT       0.00400000
END period  1

