# File generated by Flopy version 3.5.0 on 01/17/2024 at 10:46:22.
BEGIN options
  BUDGET  FILEOUT  gwf_fhb.cbc
  HEAD  FILEOUT  gwf_fhb.hds
END options

BEGIN period  1
  SAVE  head  all
  SAVE  budget  all
END period  1

