# File generated by Flopy version 3.5.0 on 01/15/2024 at 22:48:15.
BEGIN options
  SAVE_SPECIFIC_DISCHARGE
END options

BEGIN griddata
  icelltype
    CONSTANT  0
  k
    CONSTANT      20.00000000
END griddata

