# File generated by Flopy version 3.5.0 on 01/15/2024 at 22:48:15.
BEGIN options
  TS6  FILEIN  gwf_fhb.chd.ts
END options

BEGIN dimensions
  MAXBOUND  3
END dimensions

BEGIN period  1
  1 1 10 chdhead
  1 2 10 chdhead
  1 3 10 chdhead
END period  1

