# File generated by Flopy version 3.5.0 on 01/15/2024 at 22:48:15.
BEGIN options
  SAVE_FLOWS
END options

BEGIN packages
  STO6  gwf_fhb.sto  sto
  IC6  gwf_fhb.ic  ic
  NPF6  gwf_fhb.npf  npf
  DIS6  gwf_fhb.dis  dis
  CHD6  gwf_fhb.chd  chd
  WEL6  gwf_fhb.wel  wel
  OC6  gwf_fhb.oc  oc
  OBS6  gwf_fhb.obs  obs
END packages

