# File generated by Flopy version 3.5.0 on 01/17/2024 at 10:46:22.
BEGIN options
  SAVE_FLOWS
END options

BEGIN packages
  DIS6  gwf_fhb.dis  dis
  NPF6  gwf_fhb.npf  npf
  IC6  gwf_fhb.ic  ic
  STO6  gwf_fhb.sto  sto
  CHD6  gwf_fhb.chd  chd
  WEL6  gwf_fhb.wel  wel
  OC6  gwf_fhb.oc  oc
  OBS6  gwf_fhb.obs  obs
END packages

