# File generated by Flopy version 3.5.0 on 01/15/2024 at 22:48:15.
BEGIN options
END options

BEGIN timing
  TDIS6  gwf_fhb.tdis
END timing

BEGIN models
  gwf6  gwf_fhb.nam  gwf_fhb
END models

BEGIN exchanges
END exchanges

BEGIN solutiongroup  1
  ims6  gwf_fhb.ims  gwf_fhb
END solutiongroup  1

