# File generated by Flopy version 3.5.0 on 01/13/2024 at 15:33:36.
BEGIN options
  SAVE_FLOWS
END options

BEGIN packages
  RCH6  gwf_bcf2ss.rcha  rcha_0
  WEL6  gwf_bcf2ss.wel  wel_0
  RIV6  gwf_bcf2ss.riv  riv_0
  IC6  gwf_bcf2ss.ic  ic
  NPF6  gwf_bcf2ss.npf  npf
  DIS6  gwf_bcf2ss.dis  dis
  OC6  gwf_bcf2ss.oc  oc
END packages

