# File generated by Flopy version 3.5.0 on 02/03/2024 at 21:28:30.
BEGIN options
  SAVE_FLOWS
  NEWTON
END options

BEGIN packages
  GHB6  gwf_sfr_p01.ghb  ghb
  IC6  gwf_sfr_p01.ic  ic
  STO6  gwf_sfr_p01.sto  sto
  NPF6  gwf_sfr_p01.npf  npf
  DIS6  gwf_sfr_p01.dis  dis
  WEL6  gwf_sfr_p01.wel  wel
  RCH6  gwf_sfr_p01.rcha  rcha
  EVT6  gwf_sfr_p01.evta  evta
  SFR6  gwf_sfr_p01.sfr  sfr
  OC6  gwf_sfr_p01.oc  oc
END packages

