# File generated by Flopy version 3.5.0 on 02/03/2024 at 21:28:30.
BEGIN options
  TIME_UNITS  seconds
END options

BEGIN dimensions
  NPER  3
END dimensions

BEGIN perioddata
       0.00000000  1       1.00000000
  1.57788000E+09  50       1.10000000
  1.57788000E+09  50       1.10000000
END perioddata

