# File generated by Flopy version 3.5.0 on 02/03/2024 at 21:28:30.
BEGIN options
  SAVE_SPECIFIC_DISCHARGE
END options

BEGIN griddata
  icelltype
    CONSTANT  1
  k
    INTERNAL  FACTOR  1.0
         0.00200000       0.00200000       0.00000000       0.00000000       0.00000000       0.00000000       0.00000000       0.00000000       0.00000000       0.00000000
    4.00000000E-04       0.00200000       0.00200000       0.00000000       0.00000000  4.00000000E-04  4.00000000E-04  4.00000000E-04       0.00000000       0.00000000
         0.00000000  4.00000000E-04       0.00200000       0.00200000  4.00000000E-04  4.00000000E-04  4.00000000E-04  4.00000000E-04       0.00000000       0.00000000
    4.00000000E-04  4.00000000E-04  4.00000000E-04       0.00200000       0.00200000       0.00200000  4.00000000E-04  4.00000000E-04  4.00000000E-04       0.00000000
    4.00000000E-04  4.00000000E-04  4.00000000E-04       0.00200000       0.00200000       0.00200000       0.00200000       0.00200000       0.00200000       0.00200000
    4.00000000E-04  4.00000000E-04  4.00000000E-04       0.00200000       0.00200000       0.00200000       0.00200000       0.00200000  4.00000000E-04  4.00000000E-04
    4.00000000E-04  4.00000000E-04  4.00000000E-04       0.00200000       0.00200000       0.00200000       0.00200000       0.00200000  4.00000000E-04       0.00000000
         0.00000000  4.00000000E-04  4.00000000E-04       0.00200000       0.00200000       0.00200000       0.00200000  4.00000000E-04  4.00000000E-04       0.00000000
         0.00000000  4.00000000E-04  4.00000000E-04       0.00200000       0.00200000       0.00200000       0.00200000  4.00000000E-04  4.00000000E-04       0.00000000
         0.00000000  4.00000000E-04  4.00000000E-04       0.00200000       0.00200000       0.00200000       0.00200000  4.00000000E-04  4.00000000E-04  4.00000000E-04
         0.00000000  4.00000000E-04  4.00000000E-04       0.00200000       0.00200000       0.00200000       0.00200000  4.00000000E-04  4.00000000E-04       0.00000000
    4.00000000E-04  4.00000000E-04       0.00200000       0.00200000       0.00200000       0.00200000       0.00200000  4.00000000E-04  4.00000000E-04       0.00000000
         0.00200000       0.00200000       0.00200000       0.00200000       0.00200000       0.00200000       0.00200000       0.00200000       0.00200000       0.00000000
         0.00000000  4.00000000E-04  4.00000000E-04  4.00000000E-04  4.00000000E-04  4.00000000E-04  4.00000000E-04  4.00000000E-04       0.00200000       0.00000000
         0.00000000       0.00000000  4.00000000E-04  4.00000000E-04  4.00000000E-04  4.00000000E-04       0.00000000       0.00000000       0.00000000       0.00000000
END griddata

