# File generated by Flopy version 3.5.0 on 02/03/2024 at 21:28:30.
BEGIN griddata
  strt
    CONSTANT    1050.00000000
END griddata

