# File generated by Flopy version 3.5.0 on 02/07/2024 at 22:29:43.
BEGIN options
  BUDGET  FILEOUT  gwf_sfr_p01.cbc
  HEAD  FILEOUT  gwf_sfr_p01.hds
END options

BEGIN period  1
  SAVE  head  all
  SAVE  budget  all
END period  1

