# File generated by Flopy version 3.5.0 on 02/07/2024 at 22:29:43.
BEGIN griddata
  strt
    CONSTANT    1050.00000000
END griddata

