# File generated by Flopy version 3.5.0 on 02/07/2024 at 22:29:43.
BEGIN options
END options

BEGIN continuous  FILEOUT  gwf_sfr_p01.sfr.obs.csv
  r01_stage  stage  4
  r02_stage  stage  15
  r03_stage  stage  27
  r04_stage  stage  36
  r01_flow  downstream-flow  4
  r02_flow  downstream-flow  15
  r03_flow  downstream-flow  27
  r04_flow  downstream-flow  36
END continuous  FILEOUT  gwf_sfr_p01.sfr.obs.csv

