# File generated by Flopy version 3.5.0 on 02/07/2024 at 22:29:43.
BEGIN options
  SAVE_FLOWS
  NEWTON
END options

BEGIN packages
  DIS6  gwf_sfr_p01.dis  dis
  NPF6  gwf_sfr_p01.npf  npf
  STO6  gwf_sfr_p01.sto  sto
  IC6  gwf_sfr_p01.ic  ic
  GHB6  gwf_sfr_p01.ghb  ghb
  WEL6  gwf_sfr_p01.wel  wel
  RCH6  gwf_sfr_p01.rcha  rcha
  EVT6  gwf_sfr_p01.evta  evta
  SFR6  gwf_sfr_p01.sfr  sfr
  OC6  gwf_sfr_p01.oc  oc
END packages

