# File generated by Flopy version 3.5.0 on 02/07/2024 at 22:29:43.
BEGIN options
END options

BEGIN timing
  TDIS6  gwf_sfr_p01.tdis
END timing

BEGIN models
  gwf6  gwf_sfr_p01.nam  gwf_sfr_p01
END models

BEGIN exchanges
END exchanges

BEGIN solutiongroup  1
  ims6  gwf_sfr_p01.ims  gwf_sfr_p01
END solutiongroup  1

