# File generated by Flopy version 3.5.0 on 01/11/2024 at 19:44:43.
BEGIN options
  READASARRAYS
END options

BEGIN period  1
  recharge
    CONSTANT  3.00000000E-08
END period  1

