# File generated by Flopy version 3.5.0 on 01/11/2024 at 19:44:43.
BEGIN options
END options

BEGIN packages
  DIS6  gwf_twri01.dis  dis
  NPF6  gwf_twri01.npf  npf
  IC6  gwf_twri01.ic  ic
  CHD6  gwf_twri01.chd  chd_0
  DRN6  gwf_twri01.drn  drn_0
  WEL6  gwf_twri01.wel  wel_0
  RCH6  gwf_twri01.rcha  rcha_0
  OC6  gwf_twri01.oc  oc
END packages

