# File generated by Flopy version 3.5.0 on 01/17/2024 at 13:04:42.
BEGIN options
  READASARRAYS
END options

BEGIN period  1
  recharge
    CONSTANT  3.00000000E-08
END period  1

