# File generated by Flopy version 3.5.0 on 01/11/2024 at 19:44:43.
BEGIN griddata
  strt
    CONSTANT       0.00000000
END griddata

