# File generated by Flopy version 3.5.0 on 01/11/2024 at 19:44:43.
BEGIN options
END options

BEGIN nonlinear
  OUTER_DVCLOSE  1.00000000E-09
  OUTER_MAXIMUM  50
END nonlinear

BEGIN linear
  INNER_MAXIMUM  100
  INNER_DVCLOSE  1.00000000E-09
  inner_rclose  1.00000000E-06  strict
END linear

