# File generated by Flopy version 3.5.0 on 01/11/2024 at 19:44:43.
BEGIN options
END options

BEGIN timing
  TDIS6  gwf_twri01.tdis
END timing

BEGIN models
  gwf6  gwf_twri01.nam  gwf_twri01
END models

BEGIN exchanges
END exchanges

BEGIN solutiongroup  1
  ims6  gwf_twri01.ims  gwf_twri01
END solutiongroup  1

